Version 4
SHEET 1 880 680
WIRE 256 -32 256 -112
WIRE -32 112 -64 112
WIRE 80 128 32 128
WIRE 208 128 160 128
WIRE -32 144 -368 144
WIRE -368 208 -368 144
WIRE 256 320 256 144
WIRE -64 320 -64 112
WIRE 80 320 -64 320
WIRE 256 320 160 320
WIRE -368 352 -368 288
WIRE 256 352 256 320
WIRE 256 512 256 432
FLAG 256 512 0
FLAG -368 352 0
FLAG -128 -96 Vs
FLAG -128 -16 0
FLAG 256 -112 Vs
SYMBOL res 240 336 R0
SYMATTR InstName SHUNT
SYMATTR Value 10
SYMBOL voltage -368 192 R0
WINDOW 123 0 0 Left 0
WINDOW 39 0 0 Left 0
WINDOW 3 -574 49 Left 2
SYMATTR Value PULSE(0.1 3 0 0.01ns 0.01ns 0.15ms 0.3ms)
SYMATTR InstName Vin
SYMBOL voltage -128 -112 R0
WINDOW 123 0 0 Left 0
WINDOW 39 0 0 Left 0
SYMATTR InstName Vsupply
SYMATTR Value 12v
SYMBOL nmos 208 48 R0
SYMATTR InstName M1
SYMBOL res 272 64 R180
WINDOW 0 36 76 Left 2
WINDOW 3 36 40 Left 2
SYMATTR InstName LOAD
SYMATTR Value 10
SYMBOL UniversalOpAmp 0 128 R0
SYMATTR InstName U1
SYMBOL res 176 112 R90
WINDOW 0 0 56 VBottom 2
WINDOW 3 32 56 VTop 2
SYMATTR InstName R1
SYMATTR Value 10K
SYMBOL res 176 304 R90
WINDOW 0 0 56 VBottom 2
WINDOW 3 32 56 VTop 2
SYMATTR InstName R2
SYMATTR Value 1K
TEXT -432 400 Left 2 !.tran 1ms
